testData/ACTIVSg2000/ACTIVSg2000.RAW
 0,    100.00, 33, 0, 0, 60.00       / February 14, 2018 10:20:40; Simulator Version 20; BuildDate 2018_1_28
This is a synthetic power system model that does NOT represent the actual grid. It was developed as part of the US ARPA-E Grid 
Data research project and contains no CEII.
 1001,'ODESSA 2 0  ', 115.0000,1,   1,   9,   1,0.97943562, -22.734843, 1.10000, 0.90000, 1.10000, 0.90000
 1002,'PRESIDIO 2 0', 115.0000,1,   1,   9,   1,1.01273644, -18.088545, 1.10000, 0.90000, 1.10000, 0.90000
 1003,'O DONNELL ~1', 115.0000,1,   1,   9,   1,1.00926292, -17.086700, 1.10000, 0.90000, 1.10000, 0.90000
 1004,'O DONNELL ~2', 230.0000,2,   1,   9,   1,1.01307070, -18.933998, 1.10000, 0.90000, 1.10000, 0.90000
 1005,'BIG SPRING~8', 115.0000,1,   1,   9,   1,1.00557613, -16.077157, 1.10000, 0.90000, 1.10000, 0.90000
 1006,'BIG SPRING~9',  13.8000,2,   1,   9,   1,1.00000000, -13.905591, 1.10000, 0.90000, 1.10000, 0.90000
 1007,'VAN HORN 0  ', 115.0000,1,   1,   9,   1,1.01999998, -18.467213, 1.10000, 0.90000, 1.10000, 0.90000
 1008,'IRAAN 2 0   ', 115.0000,1,   1,   9,   1,1.01928508,  -8.605208, 1.10000, 0.90000, 1.10000, 0.90000
 1009,'IRAAN 2 1   ',  13.8000,2,   1,   9,   1,1.00924015,  -5.309597, 1.10000, 0.90000, 1.10000, 0.90000
 1010,'PRESIDIO 1 0', 115.0000,1,   1,   9,   1,1.01999998, -16.792355, 1.10000, 0.90000, 1.10000, 0.90000
 1011,'PRESIDIO 1 1',  22.0000,2,   1,   9,   1,1.02021110, -15.009826, 1.10000, 0.90000, 1.10000, 0.90000
 1012,'SANDERSON 0 ', 115.0000,1,   1,   9,   1,1.00599205, -25.342783, 1.10000, 0.90000, 1.10000, 0.90000
 1013,'MONAHANS 2 0', 115.0000,1,   1,   9,   1,1.00567722, -15.436564, 1.10000, 0.90000, 1.10000, 0.90000
 1014,'GRANDFALLS 0', 115.0000,1,   1,   9,   1,1.01235044, -11.913249, 1.10000, 0.90000, 1.10000, 0.90000
 1015,'MARFA 0     ', 115.0000,1,   1,   9,   1,1.02181768, -18.214501, 1.10000, 0.90000, 1.10000, 0.90000
 1016,'GARDEN CIT~1', 115.0000,1,   1,   9,   1,1.01740694, -15.485448, 1.10000, 0.90000, 1.10000, 0.90000
 1017,'ODESSA 4 0  ', 115.0000,1,   1,   9,   1,0.98167342, -21.426221, 1.10000, 0.90000, 1.10000, 0.90000
 1018,'NOTREES 0   ', 115.0000,1,   1,   9,   1,0.99114686, -20.216148, 1.10000, 0.90000, 1.10000, 0.90000
 1019,'MIDLAND 4 0 ', 115.0000,1,   1,   9,   1,0.99949187, -22.320416, 1.10000, 0.90000, 1.10000, 0.90000
 1020,'BIG SPRING~1', 115.0000,1,   1,   9,   1,1.01999998, -15.230063, 1.10000, 0.90000, 1.10000, 0.90000
 1021,'BIG SPRING~2',  13.8000,2,   1,   9,   1,1.00000000,  -8.606761, 1.10000, 0.90000, 1.10000, 0.90000
 1022,'O DONNELL ~3', 115.0000,1,   1,   9,   1,1.01242304, -16.204692, 1.10000, 0.90000, 1.10000, 0.90000
 1023,'O DONNELL ~4',  13.8000,2,   1,   9,   1,1.00999999,  -7.300393, 1.10000, 0.90000, 1.10000, 0.90000
 1024,'ODESSA 6 0  ', 115.0000,1,   1,   9,   1,0.99449503, -19.200249, 1.10000, 0.90000, 1.10000, 0.90000
 1025,'BIG SPRIN~14', 115.0000,1,   1,   9,   1,1.01628840, -14.170406, 1.10000, 0.90000, 1.10000, 0.90000
 1026,'BIG SPRIN~15',  13.8000,2,   1,   9,   1,1.00000000,  -4.641462, 1.10000, 0.90000, 1.10000, 0.90000
 1027,'MIDLAND 2 0 ', 115.0000,1,   1,   9,   1,1.00530469, -25.833336, 1.10000, 0.90000, 1.10000, 0.90000
 1028,'COAHOMA 0   ', 115.0000,1,   1,   9,   1,1.01541591, -17.717137, 1.10000, 0.90000, 1.10000, 0.90000
 1029,'MIDLAND 3 0 ', 115.0000,1,   1,   9,   1,1.00241745, -24.858888, 1.10000, 0.90000, 1.10000, 0.90000
 1030,'ALPINE 0    ', 115.0000,1,   1,   9,   1,1.01222980, -13.411431, 1.10000, 0.90000, 1.10000, 0.90000
 1031,'FORT DAVIS 0', 115.0000,1,   1,   9,   1,1.01218879, -17.672259, 1.10000, 0.90000, 1.10000, 0.90000
 1032,'MCCAMEY 1 0 ', 115.0000,1,   1,   9,   1,1.00065839, -12.280471, 1.10000, 0.90000, 1.10000, 0.90000
 1033,'MCCAMEY 1 1 ', 230.0000,2,   1,   9,   1,1.01675415, -16.898515, 1.10000, 0.90000, 1.10000, 0.90000
 1034,'BIG SPRING~6', 115.0000,1,   1,   9,   1,1.00453448, -14.320349, 1.10000, 0.90000, 1.10000, 0.90000
 1035,'BIG SPRING~7',  13.8000,2,   1,   9,   1,1.00000000, -11.030416, 1.10000, 0.90000, 1.10000, 0.90000
 1036,'CRANE 0     ', 115.0000,1,   1,   9,   1,0.99762475, -12.526972, 1.10000, 0.90000, 1.10000, 0.90000
 1037,'ODESSA 5 0  ', 115.0000,1,   1,   9,   1,0.97450435, -22.544800, 1.10000, 0.90000, 1.10000, 0.90000
 1038,'FORT STOCK~1', 115.0000,1,   1,   9,   1,1.01656735,  -7.646607, 1.10000, 0.90000, 1.10000, 0.90000
 1039,'FORT STOCK~2',  22.0000,2,   1,   9,   1,1.00000000,  -2.263052, 1.10000, 0.90000, 1.10000, 0.90000
 1040,'ANDREWS 0   ', 115.0000,1,   1,   9,   1,0.99401456, -20.480040, 1.10000, 0.90000, 1.10000, 0.90000
 1041,'FORSAN 0    ', 115.0000,1,   1,   9,   1,1.00177467, -15.107504, 1.10000, 0.90000, 1.10000, 0.90000
 1042,'FORSAN 1    ',  13.8000,2,   1,   9,   1,1.00177467, -15.107504, 1.10000, 0.90000, 1.10000, 0.90000
 1043,'FORSAN 2    ',  13.8000,2,   1,   9,   1,1.00000000, -11.864177, 1.10000, 0.90000, 1.10000, 0.90000
 1044,'BIG LAKE 0  ', 115.0000,1,   1,   9,   1,1.00675547, -25.963882, 1.10000, 0.90000, 1.10000, 0.90000
 1045,'MIDLAND 5 0 ', 115.0000,1,   1,   9,   1,0.97742546, -24.447556, 1.10000, 0.90000, 1.10000, 0.90000
 1046,'OZONA 0     ', 115.0000,1,   1,   9,   1,1.01763439, -22.491396, 1.10000, 0.90000, 1.10000, 0.90000
 1047,'MONAHANS 1 0', 115.0000,1,   1,   9,   1,1.00525081, -13.350050, 1.10000, 0.90000, 1.10000, 0.90000
 1048,'MONAHANS 1 1',  18.0000,2,   1,   9,   1,1.00525081, -13.350050, 1.10000, 0.90000, 1.10000, 0.90000
 1049,'MONAHANS 1 2',  18.0000,2,   1,   9,   1,1.00525081, -13.350050, 1.10000, 0.90000, 1.10000, 0.90000
 1050,'MONAHANS 1 3',  18.0000,2,   1,   9,   1,1.00000000,  -8.284789, 1.10000, 0.90000, 1.10000, 0.90000
 1051,'MONAHANS 1 4',  18.0000,2,   1,   9,   1,1.00000000,  -6.807389, 1.10000, 0.90000, 1.10000, 0.90000
 1052,'MONAHANS 1 5',  18.0000,2,   1,   9,   1,1.00000000,  -9.134369, 1.10000, 0.90000, 1.10000, 0.90000
 1053,'MONAHANS 1 6', 230.0000,2,   1,   9,   1,1.01740885, -17.336159, 1.10000, 0.90000, 1.10000, 0.90000
 1054,'STANTON 0   ', 115.0000,1,   1,   9,   1,1.00368440, -22.292332, 1.10000, 0.90000, 1.10000, 0.90000
 1055,'ODONNELL 0  ', 115.0000,1,   1,   9,   1,1.00140500, -18.129562, 1.10000, 0.90000, 1.10000, 0.90000
 1056,'LENORAH 0   ', 115.0000,1,   1,   9,   1,1.01999998, -21.819611, 1.10000, 0.90000, 1.10000, 0.90000
 1057,'LENORAH 1   ',  18.0000,2,   1,   9,   1,1.01999998, -21.819611, 1.10000, 0.90000, 1.10000, 0.90000
 1058,'IRAAN 3 0   ', 115.0000,1,   1,   9,   1,1.01937377, -11.220883, 1.10000, 0.90000, 1.10000, 0.90000
 1059,'IRAAN 3 1   ',  22.0000,2,   1,   9,   1,1.01937377, -11.220883, 1.10000, 0.90000, 1.10000, 0.90000
 1060,'IRAAN 3 2   ',  22.0000,2,   1,   9,   1,1.01937377, -11.220883, 1.10000, 0.90000, 1.10000, 0.90000
 1061,'BIG SPRIN~10', 115.0000,1,   1,   9,   1,1.00655663, -17.219363, 1.10000, 0.90000, 1.10000, 0.90000
 1062,'BIG SPRIN~11',  13.8000,2,   1,   9,   1,1.00655663, -17.219363, 1.10000, 0.90000, 1.10000, 0.90000
 1063,'BIG SPRIN~12',  13.8000,2,   1,   9,   1,1.00655663, -17.219363, 1.10000, 0.90000, 1.10000, 0.90000
 1064,'ODESSA 3 0  ', 115.0000,1,   1,   9,   1,0.97203445, -24.153272, 1.10000, 0.90000, 1.10000, 0.90000
 1065,'BIG SPRING~4', 115.0000,1,   1,   9,   1,1.00426054, -14.932578, 1.10000, 0.90000, 1.10000, 0.90000
 1066,'BIG SPRING~5',  13.8000,2,   1,   9,   1,1.00000000,  -7.399054, 1.10000, 0.90000, 1.10000, 0.90000
 1067,'BIG SPRIN~13', 115.0000,1,   1,   9,   1,0.99859524, -15.682480, 1.10000, 0.90000, 1.10000, 0.90000
 1068,'MIDLAND 1 0 ', 115.0000,1,   1,   9,   1,0.98680341, -16.436895, 1.10000, 0.90000, 1.10000, 0.90000
 1069,'IRAAN 1 0   ', 115.0000,1,   1,   9,   1,1.02255976,  -8.732588, 1.10000, 0.90000, 1.10000, 0.90000
 1070,'IRAAN 1 1   ',  13.8000,2,   1,   9,   1,1.03999996,  -4.228777, 1.10000, 0.90000, 1.10000, 0.90000
 1071,'ODESSA 1 0  ', 115.0000,1,   1,   9,   1,0.98702675, -21.474040, 1.10000, 0.90000, 1.10000, 0.90000
 1072,'ODESSA 1 1  ',  18.0000,2,   1,   9,   1,1.00999999, -12.110027, 1.10000, 0.90000, 1.10000, 0.90000
 1073,'ODESSA 1 2  ',  18.0000,2,   1,   9,   1,1.00999999,  -5.681972, 1.10000, 0.90000, 1.10000, 0.90000
 1074,'ODESSA 1 3  ',  18.0000,2,   1,   9,   1,1.00999999,  -7.738008, 1.10000, 0.90000, 1.10000, 0.90000
 1075,'ODESSA 1 4  ',  18.0000,2,   1,   9,   1,1.00999999, -10.505543, 1.10000, 0.90000, 1.10000, 0.90000
 1076,'ODESSA 1 5  ',  18.0000,2,   1,   9,   1,0.98702675, -21.474040, 1.10000, 0.90000, 1.10000, 0.90000
 1077,'ODESSA 1 6  ',  18.0000,2,   1,   9,   1,0.98702675, -21.474040, 1.10000, 0.90000, 1.10000, 0.90000
 1078,'ODESSA 1 7  ',  18.0000,2,   1,   9,   1,1.00999999, -11.024660, 1.10000, 0.90000, 1.10000, 0.90000
 1079,'ODESSA 1 8  ', 500.0000,2,   1,   9,   1,1.01621413, -38.582858, 1.10000, 0.90000, 1.10000, 0.90000
 1080,'ODESSA 1 9  ',  18.0000,2,   1,   9,   1,1.00999999, -10.448677, 1.10000, 0.90000, 1.10000, 0.90000
 1081,'ODESSA 1 10 ', 230.0000,2,   1,   9,   1,1.01999998, -18.691287, 1.10000, 0.90000, 1.10000, 0.90000
 1082,'FORT STOCK~3', 115.0000,2,   1,   9,   1,1.01941252,  -5.910392, 1.10000, 0.90000, 1.10000, 0.90000
 1083,'FORT STOCK~4', 115.0000,1,   1,   9,   1,1.01886177,  -9.886742, 1.10000, 0.90000, 1.10000, 0.90000
 1084,'BIG SPRING~3', 115.0000,2,   1,   9,   1,1.02251995, -16.467205, 1.10000, 0.90000, 1.10000, 0.90000
 1085,'KERMIT 0    ', 115.0000,1,   1,   9,   1,1.00898695, -15.342869, 1.10000, 0.90000, 1.10000, 0.90000
 1086,'PECOS 0     ', 115.0000,1,   1,   9,   1,1.01537406, -17.585056, 1.10000, 0.90000, 1.10000, 0.90000
 1087,'SHEFFIELD 0 ', 115.0000,1,   1,   9,   1,1.01999998, -16.125402, 1.10000, 0.90000, 1.10000, 0.90000
 1088,'MCCAMEY 2 0 ', 115.0000,2,   1,   9,   1,1.00000000, -11.878467, 1.10000, 0.90000, 1.10000, 0.90000
 1089,'LAMESA 0    ', 115.0000,1,   1,   9,   1,0.98063183, -21.306753, 1.10000, 0.90000, 1.10000, 0.90000
 1090,'GOLDSMITH 0 ', 115.0000,2,   1,   9,   1,1.01999998, -16.145053, 1.10000, 0.90000, 1.10000, 0.90000
 1091,'RALLS 2 0   ', 161.0000,1,   1,   9,   1,1.02483141, -31.017726, 1.10000, 0.90000, 1.10000, 0.90000
 2001,'PARIS 3 0   ', 161.0000,1,   2,  11,   1,1.00175178, -59.982148, 1.10000, 0.90000, 1.10000, 0.90000
 2002,'SAVOY 0     ', 500.0000,1,   2,  11,   1,1.01106095, -61.566628, 1.10000, 0.90000, 1.10000, 0.90000
 2003,'SAVOY 1     ', 161.0000,1,   2,  11,   1,1.00933814, -63.828548, 1.10000, 0.90000, 1.10000, 0.90000
 2004,'SAVOY 2     ',  13.8000,2,   2,  11,   1,1.01106095, -61.566628, 1.10000, 0.90000, 1.10000, 0.90000
 2005,'SAVOY 3     ',  13.8000,2,   2,  11,   1,1.01106095, -61.566628, 1.10000, 0.90000, 1.10000, 0.90000
 2006,'SAVOY 4     ',  13.8000,2,   2,  11,   1,1.01106095, -61.566628, 1.10000, 0.90000, 1.10000, 0.90000
 2007,'HONEY GROV~1', 161.0000,1,   2,  11,   1,1.00250876, -59.751902, 1.10000, 0.90000, 1.10000, 0.90000
 2008,'MEMPHIS 0   ', 161.0000,1,   2,  10,   1,1.01612961, -32.833006, 1.10000, 0.90000, 1.10000, 0.90000
 2009,'IOWA PARK 0 ', 161.0000,1,   2,  11,   1,1.01999998, -45.215388, 1.10000, 0.90000, 1.10000, 0.90000
 2010,'VERNON 2 0  ', 161.0000,1,   2,  10,   1,1.01999998, -36.405086, 1.10000, 0.90000, 1.10000, 0.90000
 2011,'PANHANDLE ~2', 500.0000,1,   2,  10,   1,1.03887033, -32.100981, 1.10000, 0.90000, 1.10000, 0.90000
 2012,'PANHANDLE ~3', 161.0000,1,   2,  10,   1,1.02709734, -29.869240, 1.10000, 0.90000, 1.10000, 0.90000
 2013,'PANHANDLE ~4',  18.0000,2,   2,  10,   1,1.03051019, -29.761030, 1.10000, 0.90000, 1.10000, 0.90000
 2014,'CHILDRESS 0 ', 161.0000,1,   2,  10,   1,1.01448798, -33.408935, 1.10000, 0.90000, 1.10000, 0.90000
 2015,'FORESTBURG 0', 161.0000,1,   2,  11,   1,1.00607824, -63.292788, 1.10000, 0.90000, 1.10000, 0.90000
 2016,'SHERMAN 3 0 ', 161.0000,1,   2,  11,   1,1.00601876, -69.954797, 1.10000, 0.90000, 1.10000, 0.90000
 2017,'PANHANDLE ~7', 500.0000,1,   2,  10,   1,1.02839184, -32.246829, 1.10000, 0.90000, 1.10000, 0.90000
 2018,'PANHANDLE ~8', 161.0000,1,   2,  10,   1,1.02649224, -31.456709, 1.10000, 0.90000, 1.10000, 0.90000
 2019,'PANHANDLE ~9',  20.0000,2,   2,  10,   1,1.02839184, -32.246829, 1.10000, 0.90000, 1.10000, 0.90000
 2020,'WICHITA F~12', 161.0000,1,   2,  11,   1,0.99517488, -44.885384, 1.10000, 0.90000, 1.10000, 0.90000
 2021,'PARIS 2 0   ', 500.0000,1,   2,  11,   1,1.01387322, -56.702369, 1.10000, 0.90000, 1.10000, 0.90000
 2022,'PARIS 2 1   ', 161.0000,1,   2,  11,   1,1.01001012, -58.637550, 1.10000, 0.90000, 1.10000, 0.90000
 2023,'PARIS 2 2   ',  13.8000,2,   2,  11,   1,1.01999998, -55.139520, 1.10000, 0.90000, 1.10000, 0.90000
 2024,'PARIS 2 3   ',  13.8000,2,   2,  11,   1,1.01999998, -54.474075, 1.10000, 0.90000, 1.10000, 0.90000
 2025,'WICHITA F~10', 161.0000,1,   2,  11,   1,0.99407405, -44.124135, 1.10000, 0.90000, 1.10000, 0.90000
 2026,'WHEELER 0   ', 161.0000,1,   2,  10,   1,1.02648044, -31.081493, 1.10000, 0.90000, 1.10000, 0.90000
 2027,'DEPORT 0    ', 161.0000,1,   2,  11,   1,1.00219655, -60.413016, 1.10000, 0.90000, 1.10000, 0.90000
 2028,'WICHITA FA~9', 161.0000,1,   2,  11,   1,0.99459267, -47.249777, 1.10000, 0.90000, 1.10000, 0.90000
 2029,'SILVERTON 0 ', 161.0000,1,   2,  10,   1,1.02005184, -32.781384, 1.10000, 0.90000, 1.10000, 0.90000
 2030,'BONHAM 0    ', 161.0000,1,   2,  11,   1,0.98836529, -64.039785, 1.10000, 0.90000, 1.10000, 0.90000
 2031,'MATADOR 0   ', 161.0000,1,   2,  10,   1,1.02045882, -29.638732, 1.10000, 0.90000, 1.10000, 0.90000
 2032,'ARTHUR CIT~1', 161.0000,1,   2,  11,   1,1.00453603, -59.146911, 1.10000, 0.90000, 1.10000, 0.90000
 2033,'LEONARD 0   ', 161.0000,1,   2,  11,   1,0.99087173, -65.552180, 1.10000, 0.90000, 1.10000, 0.90000
 2034,'GORDONVILL~1', 161.0000,1,   2,  11,   1,1.00462091, -69.283117, 1.10000, 0.90000, 1.10000, 0.90000
 2035,'KNOX CITY 0 ', 161.0000,1,   2,  10,   1,1.01520729, -30.560739, 1.10000, 0.90000, 1.10000, 0.90000
 2036,'WICHITA F~13', 161.0000,1,   2,  11,   1,0.99894100, -44.483250, 1.10000, 0.90000, 1.10000, 0.90000
 2037,'LINDSAY 0   ', 161.0000,1,   2,  11,   1,1.01667738, -63.626060, 1.10000, 0.90000, 1.10000, 0.90000
 2038,'ECTOR 0     ', 161.0000,1,   2,  11,   1,1.00633085, -64.301327, 1.10000, 0.90000, 1.10000, 0.90000
 2039,'SUNSET 0    ', 161.0000,1,   2,  11,   1,0.99125367, -60.671163, 1.10000, 0.90000, 1.10000, 0.90000
 2040,'CLARKSVILL~1', 161.0000,1,   2,  11,   1,1.00743854, -59.308022, 1.10000, 0.90000, 1.10000, 0.90000
 2041,'PANHANDLE ~5', 161.0000,1,   2,  10,   1,1.02802181, -27.686092, 1.10000, 0.90000, 1.10000, 0.90000
 2042,'PANHANDLE ~6',  18.0000,2,   2,  10,   1,1.01942837, -25.110830, 1.10000, 0.90000, 1.10000, 0.90000
 2043,'SADLER 0    ', 161.0000,1,   2,  11,   1,1.00504577, -69.589649, 1.10000, 0.90000, 1.10000, 0.90000
 2044,'WHITESBORO 0', 161.0000,1,   2,  11,   1,1.01305652, -65.383331, 1.10000, 0.90000, 1.10000, 0.90000
 2045,'SHEPPARD A~1', 161.0000,1,   2,  11,   1,0.99444968, -45.423968, 1.10000, 0.90000, 1.10000, 0.90000
 2046,'POTTSBORO 0 ', 161.0000,1,   2,  11,   1,1.00455952, -68.896781, 1.10000, 0.90000, 1.10000, 0.90000
 2047,'BELLS 0     ', 161.0000,1,   2,  11,   1,1.00790215, -64.729915, 1.10000, 0.90000, 1.10000, 0.90000
 2048,'CROSBYTON 0 ', 161.0000,1,   2,  10,   1,1.02370310, -31.710963, 1.10000, 0.90000, 1.10000, 0.90000
 2049,'ELECTRA 0   ', 161.0000,1,   2,  10,   1,1.01775813, -40.946465, 1.10000, 0.90000, 1.10000, 0.90000
 2050,'PATTONVILL~1', 161.0000,1,   2,  11,   1,0.99419188, -63.235408, 1.10000, 0.90000, 1.10000, 0.90000
 2051,'HENRIETTA 0 ', 161.0000,1,   2,  11,   1,0.98955202, -54.140348, 1.10000, 0.90000, 1.10000, 0.90000
 2052,'PANHANDLE~13', 161.0000,1,   2,  10,   1,1.01744485, -31.963468, 1.10000, 0.90000, 1.10000, 0.90000
 2053,'BOWIE 0     ', 161.0000,1,   2,  11,   1,0.99106336, -59.360382, 1.10000, 0.90000, 1.10000, 0.90000
 2054,'WICHITA FA~1', 500.0000,1,   2,  11,   1,0.99778110, -43.131309, 1.10000, 0.90000, 1.10000, 0.90000
 2055,'WICHITA FA~2', 161.0000,1,   2,  11,   1,0.99733210, -43.960679, 1.10000, 0.90000, 1.10000, 0.90000
 2056,'WICHITA FA~3',  18.0000,2,   2,  11,   1,0.99778110, -43.131309, 1.10000, 0.90000, 1.10000, 0.90000
 2057,'WICHITA FA~4',  18.0000,2,   2,  11,   1,0.99000001, -38.725284, 1.10000, 0.90000, 1.10000, 0.90000
 2058,'WHITE DEER 0', 161.0000,1,   2,  10,   1,1.02835965, -27.258033, 1.10000, 0.90000, 1.10000, 0.90000
 2059,'WHITE DEER 1',  13.8000,2,   2,  10,   1,1.01836169, -23.911715, 1.10000, 0.90000, 1.10000, 0.90000
 2060,'ROXTON 0    ', 161.0000,1,   2,  11,   1,0.99740493, -61.950950, 1.10000, 0.90000, 1.10000, 0.90000
 2061,'VERNON 1 0  ', 161.0000,1,   2,  10,   1,1.02117515, -37.427818, 1.10000, 0.90000, 1.10000, 0.90000
 2062,'VERNON 1 1  ',  18.0000,2,   2,  10,   1,1.01999998, -35.130999, 1.10000, 0.90000, 1.10000, 0.90000
 2063,'DENISON 2 0 ', 161.0000,1,   2,  11,   1,1.00606453, -68.258356, 1.10000, 0.90000, 1.10000, 0.90000
 2064,'SUMNER 0    ', 161.0000,1,   2,  11,   1,1.00310552, -60.277382, 1.10000, 0.90000, 1.10000, 0.90000
 2065,'GAINESVILL~1', 161.0000,1,   2,  11,   1,1.01999998, -65.600729, 1.10000, 0.90000, 1.10000, 0.90000
 2066,'ASPERMONT 0 ', 161.0000,1,   2,  10,   1,1.01443601, -27.628767, 1.10000, 0.90000, 1.10000, 0.90000
 2067,'WICHITA F~11', 161.0000,1,   2,  11,   1,0.99235684, -44.047989, 1.10000, 0.90000, 1.10000, 0.90000
 2068,'WINDTHORST 0', 161.0000,1,   2,  11,   1,0.99899507, -42.016305, 1.10000, 0.90000, 1.10000, 0.90000
 2069,'HOWE 0      ', 161.0000,1,   2,  11,   1,1.01999998, -69.116815, 1.10000, 0.90000, 1.10000, 0.90000
 2070,'ARCHER 2 0  ', 161.0000,1,   2,  11,   1,1.00107646, -41.598099, 1.10000, 0.90000, 1.10000, 0.90000
 2071,'ARCHER 2 1  ',  18.0000,2,   2,  11,   1,1.00000000, -37.919677, 1.10000, 0.90000, 1.10000, 0.90000
 2072,'COLLINSVIL~1', 161.0000,1,   2,  11,   1,1.01487589, -67.240637, 1.10000, 0.90000, 1.10000, 0.90000
 2073,'JAYTON 0    ', 161.0000,1,   2,  10,   1,1.01551402, -25.108834, 1.10000, 0.90000, 1.10000, 0.90000
 2074,'JAYTON 1    ', 115.0000,1,   2,  10,   1,1.00584888, -23.236835, 1.10000, 0.90000, 1.10000, 0.90000
 2075,'JAYTON 2    ', 115.0000,1,   2,  10,   1,1.00584888, -23.236835, 1.10000, 0.90000, 1.10000, 0.90000
 2076,'JAYTON 3    ',  24.0000,2,   2,  10,   1,1.02077723, -24.202140, 1.10000, 0.90000, 1.10000, 0.90000
 2077,'MUENSTER 1 0', 161.0000,1,   2,  11,   1,1.01789641, -61.197723, 1.10000, 0.90000, 1.10000, 0.90000
 2078,'MUENSTER 1 1',  13.8000,2,   2,  11,   1,1.01999998, -57.875000, 1.10000, 0.90000, 1.10000, 0.90000
 2079,'PADUCAH 0   ', 161.0000,1,   2,  10,   1,1.02229917, -34.626737, 1.10000, 0.90000, 1.10000, 0.90000
 2080,'NOCONA 0    ', 161.0000,1,   2,  11,   1,0.99462181, -57.499176, 1.10000, 0.90000, 1.10000, 0.90000
 2081,'DODD CITY 0 ', 161.0000,1,   2,  11,   1,1.00093615, -65.107672, 1.10000, 0.90000, 1.10000, 0.90000
 2082,'WICHITA FA~5', 161.0000,1,   2,  11,   1,1.00287104, -44.826631, 1.10000, 0.90000, 1.10000, 0.90000
 2083,'WICHITA FA~6',  20.0000,2,   2,  11,   1,1.01759064, -43.247105, 1.10000, 0.90000, 1.10000, 0.90000
 2084,'WICHITA FA~7',  20.0000,2,   2,  11,   1,1.00287104, -44.826631, 1.10000, 0.90000, 1.10000, 0.90000
 2085,'WICHITA FA~8',  20.0000,2,   2,  11,   1,1.00287104, -44.826631, 1.10000, 0.90000, 1.10000, 0.90000
 2086,'MONTAGUE 0  ', 161.0000,1,   2,  11,   1,0.99244535, -59.474501, 1.10000, 0.90000, 1.10000, 0.90000
 2087,'SPUR 0      ', 161.0000,1,   2,  10,   1,1.01737905, -27.472634, 1.10000, 0.90000, 1.10000, 0.90000
 2088,'ARCHER 1 0  ', 161.0000,1,   2,  11,   1,1.00007057, -41.716401, 1.10000, 0.90000, 1.10000, 0.90000
 2089,'ARCHER 1 1  ',  24.0000,2,   2,  11,   1,1.00000000, -38.113501, 1.10000, 0.90000, 1.10000, 0.90000
 2090,'ANNONA 0    ', 161.0000,1,   2,  11,   1,1.00252271, -61.033300, 1.10000, 0.90000, 1.10000, 0.90000
 2091,'SEYMOUR 0   ', 161.0000,1,   2,  10,   1,1.01628149, -33.978548, 1.10000, 0.90000, 1.10000, 0.90000
 2092,'DENISON 1 0 ', 161.0000,1,   2,  11,   1,1.00542438, -66.568506, 1.10000, 0.90000, 1.10000, 0.90000
 2093,'PANHANDLE~10', 161.0000,1,   2,  10,   1,1.02727139, -30.621377, 1.10000, 0.90000, 1.10000, 0.90000
 2094,'PANHANDLE~11',  13.8000,2,   2,  10,   1,1.02727139, -30.621377, 1.10000, 0.90000, 1.10000, 0.90000
 2095,'PANHANDLE~12',  13.8000,2,   2,  10,   1,1.02727139, -30.621377, 1.10000, 0.90000, 1.10000, 0.90000
 2096,'RALLS 1 0   ', 500.0000,1,   2,  10,   1,1.01999974, -27.843171, 1.10000, 0.90000, 1.10000, 0.90000
 2097,'RALLS 1 1   ', 230.0000,1,   2,  10,   1,1.01926589, -27.282308, 1.10000, 0.90000, 1.10000, 0.90000
 2098,'RALLS 1 2   ', 161.0000,1,   2,  10,   1,1.02564788, -30.426539, 1.10000, 0.90000, 1.10000, 0.90000
 2099,'RALLS 1 3   ',  18.0000,2,   2,  10,   1,1.01999998, -27.699549, 1.10000, 0.90000, 1.10000, 0.90000
 2100,'RALLS 1 4   ',  18.0000,2,   2,  10,   1,1.01999998, -25.218708, 1.10000, 0.90000, 1.10000, 0.90000
 2101,'SHERMAN 1 0 ', 500.0000,1,   2,  11,   1,1.01053905, -62.673276, 1.10000, 0.90000, 1.10000, 0.90000
 2102,'SHERMAN 1 1 ', 161.0000,1,   2,  11,   1,1.01059186, -64.120880, 1.10000, 0.90000, 1.10000, 0.90000
 2103,'SHERMAN 1 2 ',  20.0000,2,   2,  11,   1,1.01053905, -62.673276, 1.10000, 0.90000, 1.10000, 0.90000
 2104,'SHERMAN 1 3 ',  20.0000,2,   2,  11,   1,1.01053905, -62.673276, 1.10000, 0.90000, 1.10000, 0.90000
 2105,'SHERMAN 1 4 ',  20.0000,2,   2,  11,   1,1.01053905, -62.673276, 1.10000, 0.90000, 1.10000, 0.90000
 2106,'WHITEWRIGH~1', 161.0000,1,   2,  11,   1,0.98913294, -66.198009, 1.10000, 0.90000, 1.10000, 0.90000
 2107,'SHERMAN 2 0 ', 161.0000,1,   2,  11,   1,1.00515008, -64.992911, 1.10000, 0.90000, 1.10000, 0.90000
 2108,'ROCHESTER 0 ', 161.0000,1,   2,  10,   1,0.99910164, -43.691095, 1.10000, 0.90000, 1.10000, 0.90000
 2109,'BURKBURNET~1', 161.0000,1,   2,  11,   1,1.00661337, -46.357266, 1.10000, 0.90000, 1.10000, 0.90000
...
0 / END OF BUS DATA, BEGIN LOAD DATA
 1001,'1 ',1,   1,   9,    20.781,     5.888,     0.000,     0.000,     0.000,     0.000,   1,1, 0
 1002,'1 ',1,   1,   9,    15.414,     4.367,     0.000,     0.000,     0.000,     0.000,   1,1, 0
 1007,'1 ',1,   1,   9,     7.008,     1.986,     0.000,     0.000,     0.000,     0.000,   1,1, 0
 1012,'1 ',1,   1,   9,     2.985,     0.846,     0.000,     0.000,     0.000,     0.000,   1,1, 0
 1013,'1 ',1,   1,   9,     0.510,     0.144,     0.000,     0.000,     0.000,     0.000,   1,1, 0
 1013,'2 ',1,   1,   9,     1.518,     0.430,     0.000,     0.000,     0.000,     0.000,   1,1, 0
 1013,'3 ',1,   1,   9,    27.198,     7.706,     0.000,     0.000,     0.000,     0.000,   1,1, 0
 1014,'1 ',1,   1,   9,     2.220,     0.629,     0.000,     0.000,     0.000,     0.000,   1,1, 0
 1015,'1 ',1,   1,   9,     7.509,     2.128,     0.000,     0.000,     0.000,     0.000,   1,1, 0
 1016,'1 ',1,   1,   9,     2.889,     0.819,     0.000,     0.000,     0.000,     0.000,   1,1, 0
 1017,'1 ',1,   1,   9,    18.345,     5.198,     0.000,     0.000,     0.000,     0.000,   1,1, 0
 1018,'1 ',1,   1,   9,     0.069,     0.020,     0.000,     0.000,     0.000,     0.000,   1,1, 0
 1019,'1 ',1,   1,   9,    61.776,    17.503,     0.000,     0.000,     0.000,     0.000,   1,1, 0
 1024,'1 ',1,   1,   9,    63.039,    17.861,     0.000,     0.000,     0.000,     0.000,   1,1, 0
 1027,'1 ',1,   1,   9,     0.603,     0.171,     0.000,     0.000,     0.000,     0.000,   1,1, 0
 1027,'2 ',1,   1,   9,   100.608,    28.506,     0.000,     0.000,     0.000,     0.000,   1,1, 0
 1028,'1 ',1,   1,   9,     1.425,     0.404,     0.000,     0.000,     0.000,     0.000,   1,1, 0
 1028,'2 ',1,   1,   9,     0.753,     0.213,     0.000,     0.000,     0.000,     0.000,   1,1, 0
 1028,'3 ',1,   1,   9,     4.899,     1.388,     0.000,     0.000,     0.000,     0.000,   1,1, 0
 1028,'4 ',1,   1,   9,     2.937,     0.832,     0.000,     0.000,     0.000,     0.000,   1,1, 0
 1029,'1 ',1,   1,   9,    83.184,    23.569,     0.000,     0.000,     0.000,     0.000,   1,1, 0
 1030,'1 ',1,   1,   9,    23.046,     6.530,     0.000,     0.000,     0.000,     0.000,   1,1, 0
 1030,'2 ',1,   1,   9,     1.581,     0.448,     0.000,     0.000,     0.000,     0.000,   1,1, 0
 1031,'1 ',1,   1,   9,     9.246,     2.620,     0.000,     0.000,     0.000,     0.000,   1,1, 0
 1036,'1 ',1,   1,   9,     1.017,     0.288,     0.000,     0.000,     0.000,     0.000,   1,1, 0
 1036,'2 ',1,   1,   9,    12.579,     3.564,     0.000,     0.000,     0.000,     0.000,   1,1, 0
 1037,'1 ',1,   1,   9,   102.237,    28.967,     0.000,     0.000,     0.000,     0.000,   1,1, 0
 1040,'1 ',1,   1,   9,    44.358,    12.568,     0.000,     0.000,     0.000,     0.000,   1,1, 0
 1044,'1 ',1,   1,   9,     4.512,     1.278,     0.000,     0.000,     0.000,     0.000,   1,1, 0
 1044,'2 ',1,   1,   9,    10.170,     2.881,     0.000,     0.000,     0.000,     0.000,   1,1, 0
 1045,'1 ',1,   1,   9,    98.562,    27.926,     0.000,     0.000,     0.000,     0.000,   1,1, 0
 1046,'1 ',1,   1,   9,     0.006,     0.002,     0.000,     0.000,     0.000,     0.000,   1,1, 0
 1046,'2 ',1,   1,   9,    11.079,     3.139,     0.000,     0.000,     0.000,     0.000,   1,1, 0
 1054,'1 ',1,   1,   9,     1.776,     0.503,     0.000,     0.000,     0.000,     0.000,   1,1, 0
 1054,'2 ',1,   1,   9,     0.519,     0.147,     0.000,     0.000,     0.000,     0.000,   1,1, 0
 1054,'3 ',1,   1,   9,    12.693,     3.596,     0.000,     0.000,     0.000,     0.000,   1,1, 0
 1055,'1 ',1,   1,   9,     3.978,     1.127,     0.000,     0.000,     0.000,     0.000,   1,1, 0
 1058,'1 ',1,   1,   9,     4.086,     1.158,     0.000,     0.000,     0.000,     0.000,   1,1, 0
 1058,'2 ',1,   1,   9,     9.369,     2.655,     0.000,     0.000,     0.000,     0.000,   1,1, 0
 1064,'1 ',1,   1,   9,     6.591,     1.867,     0.000,     0.000,     0.000,     0.000,   1,1, 0
 1064,'2 ',1,   1,   9,   117.168,    33.198,     0.000,     0.000,     0.000,     0.000,   1,1, 0
 1067,'1 ',1,   1,   9,   101.550,    28.773,     0.000,     0.000,     0.000,     0.000,   1,1, 0
 1068,'1 ',1,   1,   9,     0.690,     0.195,     0.000,     0.000,     0.000,     0.000,   1,1, 0
 1068,'2 ',1,   1,   9,    58.713,    16.635,     0.000,     0.000,     0.000,     0.000,   1,1, 0
 1071,'1 ',1,   1,   9,    91.464,    25.915,     0.000,     0.000,     0.000,     0.000,   1,1, 0
 1083,'1 ',1,   1,   9,    39.945,    11.318,     0.000,     0.000,     0.000,     0.000,   1,1, 0
 1085,'1 ',1,   1,   9,     2.922,     0.828,     0.000,     0.000,     0.000,     0.000,   1,1, 0
 1085,'2 ',1,   1,   9,    18.375,     5.206,     0.000,     0.000,     0.000,     0.000,   1,1, 0
 1086,'1 ',1,   1,   9,    39.672,    11.240,     0.000,     0.000,     0.000,     0.000,   1,1, 0
 1087,'1 ',1,   1,   9,     0.909,     0.258,     0.000,     0.000,     0.000,     0.000,   1,1, 0
 1089,'1 ',1,   1,   9,     0.831,     0.235,     0.000,     0.000,     0.000,     0.000,   1,1, 0
 1089,'2 ',1,   1,   9,    39.774,    11.269,     0.000,     0.000,     0.000,     0.000,   1,1, 0
 1091,'1 ',1,   1,   9,     4.713,     1.335,     0.000,     0.000,     0.000,     0.000,   1,1, 0
 1091,'2 ',1,   1,   9,     6.909,     1.958,     0.000,     0.000,     0.000,     0.000,   1,1, 0
 2001,'1 ',1,   2,  11,    14.307,     4.054,     0.000,     0.000,     0.000,     0.000,   1,1, 0
 2001,'2 ',1,   2,  11,    34.050,     9.647,     0.000,     0.000,     0.000,     0.000,   1,1, 0
 2007,'1 ',1,   2,  11,     9.540,     2.703,     0.000,     0.000,     0.000,     0.000,   1,1, 0
 2008,'1 ',1,   2,  10,     8.061,     2.284,     0.000,     0.000,     0.000,     0.000,   1,1, 0
 2009,'1 ',1,   2,  11,    39.135,    11.088,     0.000,     0.000,     0.000,     0.000,   1,1, 0
 2010,'1 ',1,   2,  10,     5.106,     1.447,     0.000,     0.000,     0.000,     0.000,   1,1, 0
 2010,'2 ',1,   2,  10,     9.606,     2.722,     0.000,     0.000,     0.000,     0.000,   1,1, 0
 2010,'3 ',1,   2,  10,     2.928,     0.830,     0.000,     0.000,     0.000,     0.000,   1,1, 0
 2010,'4 ',1,   2,  10,     0.192,     0.054,     0.000,     0.000,     0.000,     0.000,   1,1, 0
 2010,'5 ',1,   2,  10,    38.973,    11.042,     0.000,     0.000,     0.000,     0.000,   1,1, 0
 2014,'1 ',1,   2,  10,     3.624,     1.027,     0.000,     0.000,     0.000,     0.000,   1,1, 0
 2014,'2 ',1,   2,  10,    21.804,     6.178,     0.000,     0.000,     0.000,     0.000,   1,1, 0
 2015,'1 ',1,   2,  11,     4.686,     1.328,     0.000,     0.000,     0.000,     0.000,   1,1, 0
 2016,'1 ',1,   2,  11,    69.267,    19.626,     0.000,     0.000,     0.000,     0.000,   1,1, 0
 2020,'1 ',1,   2,  11,    47.973,    13.592,     0.000,     0.000,     0.000,     0.000,   1,1, 0
 2022,'1 ',1,   2,  11,    11.565,     3.277,     0.000,     0.000,     0.000,     0.000,   1,1, 0
 2025,'1 ',1,   2,  11,    39.618,    11.225,     0.000,     0.000,     0.000,     0.000,   1,1, 0
 2026,'1 ',1,   2,  10,     2.511,     0.711,     0.000,     0.000,     0.000,     0.000,   1,1, 0
 2026,'2 ',1,   2,  10,     0.948,     0.269,     0.000,     0.000,     0.000,     0.000,   1,1, 0
 2026,'3 ',1,   2,  10,     7.173,     2.032,     0.000,     0.000,     0.000,     0.000,   1,1, 0
 2026,'4 ',1,   2,  10,     7.938,     2.249,     0.000,     0.000,     0.000,     0.000,   1,1, 0
 2027,'1 ',1,   2,  11,     3.555,     1.007,     0.000,     0.000,     0.000,     0.000,   1,1, 0
 2028,'1 ',1,   2,  11,    14.238,     4.034,     0.000,     0.000,     0.000,     0.000,   1,1, 0
 2029,'1 ',1,   2,  10,     3.201,     0.907,     0.000,     0.000,     0.000,     0.000,   1,1, 0
 2030,'1 ',1,   2,  11,     3.912,     1.108,     0.000,     0.000,     0.000,     0.000,   1,1, 0
 2030,'2 ',1,   2,  11,    43.233,    12.249,     0.000,     0.000,     0.000,     0.000,   1,1, 0
 2031,'1 ',1,   2,  10,     0.786,     0.223,     0.000,     0.000,     0.000,     0.000,   1,1, 0
 2031,'2 ',1,   2,  10,     1.272,     0.360,     0.000,     0.000,     0.000,     0.000,   1,1, 0
 2031,'3 ',1,   2,  10,     3.708,     1.051,     0.000,     0.000,     0.000,     0.000,   1,1, 0
 2032,'1 ',1,   2,  11,     3.354,     0.950,     0.000,     0.000,     0.000,     0.000,   1,1, 0
 2033,'1 ',1,   2,  11,     1.302,     0.369,     0.000,     0.000,     0.000,     0.000,   1,1, 0
 2033,'2 ',1,   2,  11,    12.270,     3.477,     0.000,     0.000,     0.000,     0.000,   1,1, 0
 2034,'1 ',1,   2,  11,     5.340,     1.513,     0.000,     0.000,     0.000,     0.000,   1,1, 0
 2035,'1 ',1,   2,  10,     4.149,     1.176,     0.000,     0.000,     0.000,     0.000,   1,1, 0
 2035,'2 ',1,   2,  10,     0.534,     0.151,     0.000,     0.000,     0.000,     0.000,   1,1, 0
 2036,'1 ',1,   2,  11,    41.586,    11.783,     0.000,     0.000,     0.000,     0.000,   1,1, 0
 2037,'1 ',1,   2,  11,     0.690,     0.195,     0.000,     0.000,     0.000,     0.000,   1,1, 0
 2037,'2 ',1,   2,  11,     2.811,     0.796,     0.000,     0.000,     0.000,     0.000,   1,1, 0
 2038,'1 ',1,   2,  11,     2.604,     0.738,     0.000,     0.000,     0.000,     0.000,   1,1, 0
 2039,'1 ',1,   2,  11,     5.559,     1.575,     0.000,     0.000,     0.000,     0.000,   1,1, 0
 2040,'1 ',1,   2,  11,    15.903,     4.506,     0.000,     0.000,     0.000,     0.000,   1,1, 0
 2043,'1 ',1,   2,  11,     4.236,     1.200,     0.000,     0.000,     0.000,     0.000,   1,1, 0
 2044,'1 ',1,   2,  11,    27.405,     7.765,     0.000,     0.000,     0.000,     0.000,   1,1, 0
 2045,'1 ',1,   2,  11,    22.605,     6.405,     0.000,     0.000,     0.000,     0.000,   1,1, 0
 2046,'1 ',1,   2,  11,    22.134,     6.271,     0.000,     0.000,     0.000,     0.000,   1,1, 0
 2047,'1 ',1,   2,  11,     9.408,     2.666,     0.000,     0.000,     0.000,     0.000,   1,1, 0
 2047,'2 ',1,   2,  11,     5.547,     1.572,     0.000,     0.000,     0.000,     0.000,   1,1, 0
 2048,'1 ',1,   2,  10,     6.417,     1.818,     0.000,     0.000,     0.000,     0.000,   1,1, 0
 2049,'1 ',1,   2,  10,     0.486,     0.138,     0.000,     0.000,     0.000,     0.000,   1,1, 0
 2049,'2 ',1,   2,  10,     0.579,     0.164,     0.000,     0.000,     0.000,     0.000,   1,1, 0
 2049,'3 ',1,   2,  10,    10.506,     2.977,     0.000,     0.000,     0.000,     0.000,   1,1, 0
 2050,'1 ',1,   2,  11,     3.657,     1.036,     0.000,     0.000,     0.000,     0.000,   1,1, 0
 2051,'1 ',1,   2,  11,    17.850,     5.057,     0.000,     0.000,     0.000,     0.000,   1,1, 0
 2052,'1 ',1,   2,  10,     9.459,     2.680,     0.000,     0.000,     0.000,     0.000,   1,1, 0
 2052,'2 ',1,   2,  10,    15.378,     4.357,     0.000,     0.000,     0.000,     0.000,   1,1, 0
 2053,'1 ',1,   2,  11,    29.133,     8.254,     0.000,     0.000,     0.000,     0.000,   1,1, 0
 2055,'1 ',1,   2,  11,    49.620,    14.059,     0.000,     0.000,     0.000,     0.000,   1,1, 0
 2060,'1 ',1,   2,  11,     3.795,     1.075,     0.000,     0.000,     0.000,     0.000,   1,1, 0
 2063,'1 ',1,   2,  11,    65.616,    18.591,     0.000,     0.000,     0.000,     0.000,   1,1, 0
 2064,'1 ',1,   2,  11,     7.038,     1.994,     0.000,     0.000,     0.000,     0.000,   1,1, 0
 2064,'2 ',1,   2,  11,     3.009,     0.853,     0.000,     0.000,     0.000,     0.000,   1,1, 0
 2065,'1 ',1,   2,  11,    78.360,    22.202,     0.000,     0.000,     0.000,     0.000,   1,1, 0
 2066,'1 ',1,   2,  10,     4.050,     1.147,     0.000,     0.000,     0.000,     0.000,   1,1, 0
 2066,'2 ',1,   2,  10,     2.541,     0.720,     0.000,     0.000,     0.000,     0.000,   1,1, 0
 2066,'3 ',1,   2,  10,     0.522,     0.148,     0.000,     0.000,     0.000,     0.000,   1,1, 0
 2067,'1 ',1,   2,  11,    53.967,    15.291,     0.000,     0.000,     0.000,     0.000,   1,1, 0
 2068,'1 ',1,   2,  11,     5.760,     1.632,     0.000,     0.000,     0.000,     0.000,   1,1, 0
 2069,'1 ',1,   2,  11,    21.924,     6.212,     0.000,     0.000,     0.000,     0.000,   1,1, 0
 2072,'1 ',1,   2,  11,     9.705,     2.750,     0.000,     0.000,     0.000,     0.000,   1,1, 0
 2079,'1 ',1,   2,  10,     4.479,     1.269,     0.000,     0.000,     0.000,     0.000,   1,1, 0
 2080,'1 ',1,   2,  11,    16.932,     4.797,     0.000,     0.000,     0.000,     0.000,   1,1, 0
 2081,'1 ',1,   2,  11,     4.464,     1.265,     0.000,     0.000,     0.000,     0.000,   1,1, 0
 2082,'1 ',1,   2,  11,    59.031,    16.725,     0.000,     0.000,     0.000,     0.000,   1,1, 0
 2086,'1 ',1,   2,  11,     2.193,     0.621,     0.000,     0.000,     0.000,     0.000,   1,1, 0
 2087,'1 ',1,   2,  10,     7.896,     2.237,     0.000,     0.000,     0.000,     0.000,   1,1, 0
 2090,'1 ',1,   2,  11,     2.424,     0.687,     0.000,     0.000,     0.000,     0.000,   1,1, 0
 2091,'1 ',1,   2,  10,    17.046,     4.830,     0.000,     0.000,     0.000,     0.000,   1,1, 0
 2092,'1 ',1,   2,  11,    24.108,     6.831,     0.000,     0.000,     0.000,     0.000,   1,1, 0
 2106,'1 ',1,   2,  11,    14.403,     4.081,     0.000,     0.000,     0.000,     0.000,   1,1, 0
 2107,'1 ',1,   2,  11,    74.151,    21.009,     0.000,     0.000,     0.000,     0.000,   1,1, 0
 2108,'1 ',1,   2,  10,     2.145,     0.608,     0.000,     0.000,     0.000,     0.000,   1,1, 0
 2109,'1 ',1,   2,  11,    33.810,     9.579,     0.000,     0.000,     0.000,     0.000,   1,1, 0
 2110,'1 ',1,   2,  11,     8.589,     2.434,     0.000,     0.000,     0.000,     0.000,   1,1, 0
 2111,'1 ',1,   2,  11,     7.002,     1.984,     0.000,     0.000,     0.000,     0.000,   1,1, 0
 2111,'2 ',1,   2,  11,     6.951,     1.969,     0.000,     0.000,     0.000,     0.000,   1,1, 0
 2112,'1 ',1,   2,  11,     4.542,     1.287,     0.000,     0.000,     0.000,     0.000,   1,1, 0
 2114,'1 ',1,   2,  11,    70.776,    20.053,     0.000,     0.000,     0.000,     0.000,   1,1, 0
 2121,'1 ',1,   2,  11,     2.334,     0.661,     0.000,     0.000,     0.000,     0.000,   1,1, 0
 2122,'1 ',1,   2,  11,     6.723,     1.905,     0.000,     0.000,     0.000,     0.000,   1,1, 0
 2124,'1 ',1,   2,  11,    21.285,     6.031,     0.000,     0.000,     0.000,     0.000,   1,1, 0
 2125,'1 ',1,   2,  11,     4.056,     1.149,     0.000,     0.000,     0.000,     0.000,   1,1, 0
 2126,'1 ',1,   2,  11,    14.235,     4.033,     0.000,     0.000,     0.000,     0.000,   1,1, 0
 2129,'1 ',1,   2,  11,     6.633,     1.879,     0.000,     0.000,     0.000,     0.000,   1,1, 0
 2132,'1 ',1,   2,  10,    11.940,     3.383,     0.000,     0.000,     0.000,     0.000,   1,1, 0
 2133,'1 ',1,   2,  11,     5.679,     1.609,     0.000,     0.000,     0.000,     0.000,   1,1, 0
 3002,'1 ',1,   3,  28,   112.860,    31.977,     0.000,     0.000,     0.000,     0.000,   1,1, 0
 3005,'1 ',1,   3,  28,     0.792,     0.224,     0.000,     0.000,     0.000,     0.000,   1,1, 0
 3005,'2 ',1,   3,  28,     0.825,     0.234,     0.000,     0.000,     0.000,     0.000,   1,1, 0
 3005,'3 ',1,   3,  28,     5.724,     1.622,     0.000,     0.000,     0.000,     0.000,   1,1, 0
 3006,'1 ',1,   3,  27,     7.347,     2.082,     0.000,     0.000,     0.000,     0.000,   1,1, 0
 3007,'1 ',1,   3,  27,    14.964,     4.240,     0.000,     0.000,     0.000,     0.000,   1,1, 0
 3008,'1 ',1,   3,  27,    18.996,     5.382,     0.000,     0.000,     0.000,     0.000,   1,1, 0
 3008,'2 ',1,   3,  27,     0.813,     0.230,     0.000,     0.000,     0.000,     0.000,   1,1, 0
 3009,'1 ',1,   3,  28,    12.540,     3.553,     0.000,     0.000,     0.000,     0.000,   1,1, 0
 3010,'1 ',1,   3,  28,     4.671,     1.323,     0.000,     0.000,     0.000,     0.000,   1,1, 0
 3011,'1 ',1,   3,  28,    18.981,     5.378,     0.000,     0.000,     0.000,     0.000,   1,1, 0
 3011,'2 ',1,   3,  28,     8.157,     2.311,     0.000,     0.000,     0.000,     0.000,   1,1, 0
 3012,'1 ',1,   3,  28,     0.564,     0.160,     0.000,     0.000,     0.000,     0.000,   1,1, 0
 3013,'1 ',1,   3,  27,    64.557,    18.291,     0.000,     0.000,     0.000,     0.000,   1,1, 0
 3014,'1 ',1,   3,  28,    22.002,     6.234,     0.000,     0.000,     0.000,     0.000,   1,1, 0
 3015,'1 ',1,   3,  27,     5.364,     1.520,     0.000,     0.000,     0.000,     0.000,   1,1, 0
 3021,'1 ',1,   3,  27,     0.525,     0.149,     0.000,     0.000,     0.000,     0.000,   1,1, 0
 3021,'2 ',1,   3,  27,     1.416,     0.401,     0.000,     0.000,     0.000,     0.000,   1,1, 0
 3022,'1 ',1,   3,  27,    24.591,     6.967,     0.000,     0.000,     0.000,     0.000,   1,1, 0
 3023,'1 ',1,   3,  27,    10.407,     2.949,     0.000,     0.000,     0.000,     0.000,   1,1, 0
 3024,'1 ',1,   3,  28,    10.131,     2.870,     0.000,     0.000,     0.000,     0.000,   1,1, 0
 3025,'1 ',1,   3,  28,    13.674,     3.874,     0.000,     0.000,     0.000,     0.000,   1,1, 0
 3029,'1 ',1,   3,  28,     4.866,     1.379,     0.000,     0.000,     0.000,     0.000,   1,1, 0
 3030,'1 ',1,   3,  27,   129.720,    36.754,     0.000,     0.000,     0.000,     0.000,   1,1, 0
 3031,'1 ',1,   3,  27,    14.733,     4.174,     0.000,     0.000,     0.000,     0.000,   1,1, 0
 3032,'1 ',1,   3,  27,    72.864,    20.645,     0.000,     0.000,     0.000,     0.000,   1,1, 0
 3035,'1 ',1,   3,  28,     3.465,     0.982,     0.000,     0.000,     0.000,     0.000,   1,1, 0
 3036,'1 ',1,   3,  28,     1.299,     0.368,     0.000,     0.000,     0.000,     0.000,   1,1, 0
 3036,'2 ',1,   3,  28,     4.503,     1.276,     0.000,     0.000,     0.000,     0.000,   1,1, 0
 3040,'1 ',1,   3,  27,    14.607,     4.139,     0.000,     0.000,     0.000,     0.000,   1,1, 0
 3042,'1 ',1,   3,  27,     5.016,     1.421,     0.000,     0.000,     0.000,     0.000,   1,1, 0
 3042,'2 ',1,   3,  27,     3.738,     1.059,     0.000,     0.000,     0.000,     0.000,   1,1, 0
 3049,'1 ',1,   3,  27,    10.584,     2.999,     0.000,     0.000,     0.000,     0.000,   1,1, 0
 3051,'1 ',1,   3,  28,     0.843,     0.239,     0.000,     0.000,     0.000,     0.000,   1,1, 0
 3051,'2 ',1,   3,  28,   144.447,    40.927,     0.000,     0.000,     0.000,     0.000,   1,1, 0
 3052,'1 ',1,   3,  28,     8.076,     2.288,     0.000,     0.000,     0.000,     0.000,   1,1, 0
 3066,'1 ',1,   3,  28,    22.035,     6.243,     0.000,     0.000,     0.000,     0.000,   1,1, 0
 3069,'1 ',1,   3,  27,     3.813,     1.080,     0.000,     0.000,     0.000,     0.000,   1,1, 0
 3072,'1 ',1,   3,  27,     5.985,     1.696,     0.000,     0.000,     0.000,     0.000,   1,1, 0
 3075,'1 ',1,   3,  28,    12.183,     3.452,     0.000,     0.000,     0.000,     0.000,   1,1, 0
 3076,'1 ',1,   3,  28,    10.794,     3.058,     0.000,     0.000,     0.000,     0.000,   1,1, 0
 3077,'1 ',1,   3,  27,    68.655,    19.452,     0.000,     0.000,     0.000,     0.000,   1,1, 0
 3093,'1 ',1,   3,  28,     5.046,     1.430,     0.000,     0.000,     0.000,     0.000,   1,1, 0
 3099,'1 ',1,   3,  27,    12.078,     3.422,     0.000,     0.000,     0.000,     0.000,   1,1, 0
 3100,'1 ',1,   3,  27,     8.526,     2.416,     0.000,     0.000,     0.000,     0.000,   1,1, 0
 3101,'1 ',1,   3,  28,     0.105,     0.030,     0.000,     0.000,     0.000,     0.000,   1,1, 0
 3101,'2 ',1,   3,  28,     2.793,     0.791,     0.000,     0.000,     0.000,     0.000,   1,1, 0
 3101,'3 ',1,   3,  28,     6.534,     1.851,     0.000,     0.000,     0.000,     0.000,   1,1, 0
 3102,'1 ',1,   3,  27,    75.255,    21.322,     0.000,     0.000,     0.000,     0.000,   1,1, 0
 3103,'1 ',1,   3,  27,     0.333,     0.094,     0.000,     0.000,     0.000,     0.000,   1,1, 0
 3103,'2 ',1,   3,  27,    38.985,    11.046,     0.000,     0.000,     0.000,     0.000,   1,1, 0
...
0 / END OF LOAD DATA, BEGIN FIXED SHUNT DATA
  2017,'2 ', 1,     0.000,  -100.000
  2096,'2 ', 1,     0.000,   -61.166
  3051,'2 ', 0,     0.000,    80.000
  8005,'1 ', 0,     0.000,   100.000
0 / END OF FIXED SHUNT DATA, BEGIN GENERATOR DATA
 1004,'1 ',   158.250,   -30.380,    44.940,   -30.380,1.01000,    0,   253.200,   0.00000,   1.00000,   0.00000,   0.00000,1.00000,1,  100.0,   211.000,    63.300,   1,1.0000,   0,1.0000,   0,1.0000,   0,1.0000,1, 1.0000
 1006,'1 ',    25.730,    -4.354,     7.310,    -4.940,1.00000,    0,    41.160,   0.00000,   1.00000,   0.00000,   0.00000,1.00000,1,  100.0,    34.300,    10.290,   1,1.0000,   0,1.0000,   0,1.0000,   0,1.0000,1, 1.0000
 1009,'1 ',    61.870,   -11.880,    17.570,   -11.880,1.00000,    0,    99.000,   0.00000,   1.00000,   0.00000,   0.00000,1.00000,1,  100.0,    82.500,    24.750,   1,1.0000,   0,1.0000,   0,1.0000,   0,1.0000,1, 1.0000
 1011,'1 ',     9.972,     0.000,     0.000,     0.000,1.00000,    0,    12.000,   0.00000,   1.00000,   0.00000,   0.00000,1.00000,1,  100.0,    10.000,     3.000,   1,1.0000,   0,1.0000,   0,1.0000,   0,1.0000,0, 1.0000
 1021,'1 ',   149.630,   -23.151,    42.490,   -28.730,1.00000,    0,   239.400,   0.00000,   1.00000,   0.00000,   0.00000,1.00000,1,  100.0,   199.500,    59.850,   1,1.0000,   0,1.0000,   0,1.0000,   0,1.0000,1, 1.0000
 1023,'1 ',   135.000,     2.262,    38.340,   -25.920,1.01000,    0,   216.000,   0.00000,   1.00000,   0.00000,   0.00000,1.00000,1,  100.0,   180.000,    54.000,   1,1.0000,   0,1.0000,   0,1.0000,   0,1.0000,1, 1.0000
 1026,'1 ',    93.150,    -3.423,    26.450,   -17.880,1.00000,    0,   149.040,   0.00000,   1.00000,   0.00000,   0.00000,1.00000,1,  100.0,   124.200,    37.260,   1,1.0000,   0,1.0000,   0,1.0000,   0,1.0000,1, 1.0000
 1033,'1 ',   208.500,   -40.030,    59.210,   -40.030,1.00000,    0,   333.600,   0.00000,   1.00000,   0.00000,   0.00000,1.00000,1,  100.0,   278.000,    83.400,   1,1.0000,   0,1.0000,   0,1.0000,   0,1.0000,1, 1.0000
 1035,'1 ',    67.500,    -6.868,    19.170,   -12.960,1.00000,    0,   108.000,   0.00000,   1.00000,   0.00000,   0.00000,1.00000,1,  100.0,    90.000,    27.000,   1,1.0000,   0,1.0000,   0,1.0000,   0,1.0000,1, 1.0000
 1039,'1 ',   110.630,   -16.653,    31.420,   -21.240,1.00000,    0,   177.000,   0.00000,   1.00000,   0.00000,   0.00000,1.00000,1,  100.0,   147.500,    44.250,   1,1.0000,   0,1.0000,   0,1.0000,   0,1.0000,1, 1.0000
 1042,'1 ',     0.000,   -10.549,    25.960,   -17.550,1.00000,    0,   146.280,   0.00000,   1.00000,   0.00000,   0.00000,1.00000,0,  100.0,   121.900,    36.570,   1,1.0000,   0,1.0000,   0,1.0000,   0,1.0000,1, 1.0000
 1043,'1 ',    44.100,    -1.162,    12.520,    -8.470,1.00000,    0,    70.560,   0.00000,   1.00000,   0.00000,   0.00000,1.00000,1,  100.0,    58.800,    17.640,   1,1.0000,   0,1.0000,   0,1.0000,   0,1.0000,1, 1.0000
 1048,'1 ',     0.000,     0.000,   165.530,   -36.100,1.00000,    0,   390.240,   0.00000,   0.10170,   0.00000,   0.00000,1.00000,0,  100.0,   325.200,    97.560,   1,1.0000,   0,1.0000,   0,1.0000,   0,1.0000,0, 1.0000
 1049,'1 ',     0.000,     0.000,   165.530,   -36.100,1.00000,    0,   390.240,   0.00000,   0.13490,   0.00000,   0.00000,1.00000,0,  100.0,   325.200,    97.560,   1,1.0000,   0,1.0000,   0,1.0000,   0,1.0000,0, 1.0000
 1050,'1 ',    89.150,    -4.140,    45.500,    -9.920,1.00000,    0,   107.280,   0.00000,   0.27770,   0.00000,   0.00000,1.00000,1,  100.0,    89.400,    26.820,   1,1.0000,   0,1.0000,   0,1.0000,   0,1.0000,0, 1.0000
 1051,'1 ',    89.150,    -2.881,    45.500,    -9.920,1.00000,    0,   107.280,   0.00000,   0.31740,   0.00000,   0.00000,1.00000,1,  100.0,    89.400,    26.820,   1,1.0000,   0,1.0000,   0,1.0000,   0,1.0000,0, 1.0000
 1052,'1 ',    89.150,    -7.036,    45.500,    -9.920,1.00000,    0,   107.280,   0.00000,   0.27810,   0.00000,   0.00000,1.00000,1,  100.0,    89.400,    26.820,   1,1.0000,   0,1.0000,   0,1.0000,   0,1.0000,0, 1.0000
 1053,'1 ',     0.000,     0.000,    91.010,   -19.850,1.00000,    0,   214.560,   0.00000,   0.16870,   0.00000,   0.00000,1.00000,0,  100.0,   178.800,    53.640,   1,1.0000,   0,1.0000,   0,1.0000,   0,1.0000,0, 1.0000
 1057,'1 ',     0.000,    -7.656,    25.560,   -17.280,1.00000,    0,   144.000,   0.00000,   1.00000,   0.00000,   0.00000,1.00000,0,  100.0,   120.000,    36.000,   1,1.0000,   0,1.0000,   0,1.0000,   0,1.0000,1, 1.0000
 1059,'1 ',     0.000,     0.000,     2.850,    -0.620,1.04000,    0,     6.720,   0.00000,   0.22770,   0.00000,   0.00000,1.00000,0,  100.0,     5.600,     1.680,   1,1.0000,   0,1.0000,   0,1.0000,   0,1.0000,0, 1.0000
 1060,'1 ',     0.000,     0.000,     1.020,    -0.220,1.04000,    0,     2.400,   0.00000,   0.16300,   0.00000,   0.00000,1.00000,0,  100.0,     2.000,     0.600,   1,1.0000,   0,1.0000,   0,1.0000,   0,1.0000,0, 1.0000
 1062,'1 ',     0.000,     0.000,     0.000,     0.000,1.01000,    0,     1.800,   0.00000,   1.00000,   0.00000,   0.00000,1.00000,0,  100.0,     1.500,     0.450,   1,1.0000,   0,1.0000,   0,1.0000,   0,1.0000,0, 1.0000
 1063,'1 ',     0.000,     0.000,     0.000,     0.000,1.01000,    0,   276.000,   0.00000,   1.00000,   0.00000,   0.00000,1.00000,0,  100.0,   230.000,    69.000,   1,1.0000,   0,1.0000,   0,1.0000,   0,1.0000,0, 1.0000
 1066,'1 ',   106.880,    -0.830,    30.350,   -20.520,1.00000,    0,   171.000,   0.00000,   1.00000,   0.00000,   0.00000,1.00000,1,  100.0,   142.500,    42.750,   1,1.0000,   0,1.0000,   0,1.0000,   0,1.0000,1, 1.0000
 1070,'1 ',   120.380,    25.495,    34.190,   -23.110,1.04000,    0,   192.600,   0.00000,   1.00000,   0.00000,   0.00000,1.00000,1,  100.0,   160.500,    48.150,   1,1.0000,   0,1.0000,   0,1.0000,   0,1.0000,1, 1.0000
 1072,'1 ',   191.594,    30.817,    97.800,   -21.330,1.01000,    0,   230.560,   0.00000,   0.30820,   0.00000,   0.00000,1.00000,1,  100.0,   192.130,    57.640,   1,1.0000,   0,1.0000,   0,1.0000,   0,1.0000,0, 1.0000
 1073,'1 ',   191.594,    35.969,    97.800,   -21.330,1.01000,    0,   230.560,   0.00000,   0.19480,   0.00000,   0.00000,1.00000,1,  100.0,   192.130,    57.640,   1,1.0000,   0,1.0000,   0,1.0000,   0,1.0000,0, 1.0000
 1074,'1 ',   191.594,    32.681,    97.800,   -21.330,1.01000,    0,   230.560,   0.00000,   0.20960,   0.00000,   0.00000,1.00000,1,  100.0,   192.130,    57.640,   1,1.0000,   0,1.0000,   0,1.0000,   0,1.0000,0, 1.0000
 1075,'1 ',   191.594,    34.381,    97.800,   -21.330,1.01000,    0,   230.560,   0.00000,   0.12370,   0.00000,   0.00000,1.00000,1,  100.0,   192.130,    57.640,   1,1.0000,   0,1.0000,   0,1.0000,   0,1.0000,0, 1.0000
 1076,'1 ',     0.000,     0.000,    97.800,   -21.330,1.01000,    0,   230.560,   0.00000,   0.10660,   0.00000,   0.00000,1.00000,0,  100.0,   192.130,    57.640,   1,1.0000,   0,1.0000,   0,1.0000,   0,1.0000,0, 1.0000
 1077,'1 ',     0.000,     0.000,    97.800,   -21.330,1.01000,    0,   230.560,   0.00000,   0.15380,   0.00000,   0.00000,1.00000,0,  100.0,   192.130,    57.640,   1,1.0000,   0,1.0000,   0,1.0000,   0,1.0000,0, 1.0000
 1078,'1 ',    95.233,    18.159,    48.610,   -10.600,1.01000,    0,   114.600,   0.00000,   0.28520,   0.00000,   0.00000,1.00000,1,  100.0,    95.500,    28.650,   1,1.0000,   0,1.0000,   0,1.0000,   0,1.0000,0, 1.0000
 1079,'1 ',    95.233,   -10.600,    48.610,   -10.600,1.01000,    0,   114.600,   0.00000,   0.17260,   0.00000,   0.00000,1.00000,1,  100.0,    95.500,    28.650,   1,1.0000,   0,1.0000,   0,1.0000,   0,1.0000,0, 1.0000
 1080,'1 ',    95.233,    14.904,    48.610,   -10.600,1.01000,    0,   114.600,   0.00000,   0.15430,   0.00000,   0.00000,1.00000,1,  100.0,    95.500,    28.650,   1,1.0000,   0,1.0000,   0,1.0000,   0,1.0000,0, 1.0000
 1081,'1 ',     0.000,     0.000,   145.830,   -31.800,1.01000,    0,   343.800,   0.00000,   0.14960,   0.00000,   0.00000,1.00000,0,  100.0,   286.500,    85.950,   1,1.0000,   0,1.0000,   0,1.0000,   0,1.0000,0, 1.0000
 1082,'1 ',   112.500,   -21.600,    31.950,   -21.600,1.00000,    0,   180.000,   0.00000,   1.00000,   0.00000,   0.00000,1.00000,1,  100.0,   150.000,    45.000,   1,1.0000,   0,1.0000,   0,1.0000,   0,1.0000,1, 1.0000
 1084,'1 ',    86.620,    24.600,    24.600,   -16.630,1.04000,    0,   138.600,   0.00000,   1.00000,   0.00000,   0.00000,1.00000,1,  100.0,   115.500,    34.650,   1,1.0000,   0,1.0000,   0,1.0000,   0,1.0000,1, 1.0000
 1088,'1 ',    56.250,    -0.293,    15.970,   -10.800,1.00000,    0,    90.000,   0.00000,   1.00000,   0.00000,   0.00000,1.00000,1,  100.0,    75.000,    22.500,   1,1.0000,   0,1.0000,   0,1.0000,   0,1.0000,1, 1.0000
 1090,'1 ',   114.370,    31.032,    32.480,   -21.960,1.02000,    0,   183.000,   0.00000,   1.00000,   0.00000,   0.00000,1.00000,1,  100.0,   152.500,    45.750,   1,1.0000,   0,1.0000,   0,1.0000,   0,1.0000,1, 1.0000
 1090,'2 ',    27.000,     7.670,     7.670,    -5.180,1.02000,    0,    43.200,   0.00000,   1.00000,   0.00000,   0.00000,1.00000,1,  100.0,    36.000,    10.800,   1,1.0000,   0,1.0000,   0,1.0000,   0,1.0000,1, 1.0000
 2004,'1 ',     0.000,     0.000,   199.430,   -43.490,1.02000,    0,   470.160,   0.00000,   0.10640,   0.00000,   0.00000,1.00000,0,  100.0,   391.800,   117.540,   1,1.0000,   0,1.0000,   0,1.0000,   0,1.0000,0, 1.0000
 2005,'1 ',     0.000,     0.000,   199.430,   -43.490,1.02000,    0,   470.160,   0.00000,   0.22750,   0.00000,   0.00000,1.00000,0,  100.0,   391.800,   117.540,   1,1.0000,   0,1.0000,   0,1.0000,   0,1.0000,0, 1.0000
 2006,'1 ',     0.000,     0.000,   199.430,   -43.490,1.02000,    0,   470.160,   0.00000,   0.20040,   0.00000,   0.00000,1.00000,0,  100.0,   391.800,   117.540,   1,1.0000,   0,1.0000,   0,1.0000,   0,1.0000,0, 1.0000
 2013,'1 ',   150.450,   -28.890,    42.730,   -28.890,1.00000,    0,   240.720,   0.00000,   1.00000,   0.00000,   0.00000,1.00000,1,  100.0,   200.600,    60.180,   1,1.0000,   0,1.0000,   0,1.0000,   0,1.0000,1, 1.0000
 2019,'1 ',     0.000,    46.430,    46.430,   -31.390,1.04000,    0,   261.600,   0.00000,   1.00000,   0.00000,   0.00000,1.00000,0,  100.0,   218.000,    65.400,   1,1.0000,   0,1.0000,   0,1.0000,   0,1.0000,1, 1.0000
 2023,'1 ',    83.097,    18.160,    42.420,    -9.250,1.02000,    0,   100.000,   0.00000,   0.29440,   0.00000,   0.00000,1.00000,1,  100.0,    83.330,    25.000,   1,1.0000,   0,1.0000,   0,1.0000,   0,1.0000,0, 1.0000
 2024,'1 ',   166.205,    26.527,    84.830,   -18.500,1.02000,    0,   200.000,   0.00000,   0.15080,   0.00000,   0.00000,1.00000,1,  100.0,   166.670,    50.000,   1,1.0000,   0,1.0000,   0,1.0000,   0,1.0000,0, 1.0000
 2042,'1 ',    59.700,   -11.460,    16.950,   -11.460,1.01000,    0,    95.520,   0.00000,   1.00000,   0.00000,   0.00000,1.00000,1,  100.0,    79.600,    23.880,   1,1.0000,   0,1.0000,   0,1.0000,   0,1.0000,1, 1.0000
 2056,'1 ',     0.000,     0.000,     2.800,    -0.730,0.99000,    0,     7.200,   0.00000,   0.24920,   0.00000,   0.00000,1.00000,0,  100.0,     6.000,     1.800,   1,1.0000,   0,1.0000,   0,1.0000,   0,1.0000,0, 1.0000
 2057,'1 ',   573.575,   -47.070,   335.520,   -87.840,0.99000,    0,   864.000,   0.00000,   0.17700,   0.00000,   0.00000,1.00000,1,  100.0,   720.000,   216.000,   1,1.0000,   0,1.0000,   0,1.0000,   0,1.0000,0, 1.0000
 2059,'1 ',    60.000,   -11.520,    17.040,   -11.520,1.00000,    0,    96.000,   0.00000,   1.00000,   0.00000,   0.00000,1.00000,1,  100.0,    80.000,    24.000,   1,1.0000,   0,1.0000,   0,1.0000,   0,1.0000,1, 1.0000
 2062,'1 ',   101.550,    -4.842,    28.840,   -19.500,1.02000,    0,   162.480,   0.00000,   1.00000,   0.00000,   0.00000,1.00000,1,  100.0,   135.400,    40.620,   1,1.0000,   0,1.0000,   0,1.0000,   0,1.0000,1, 1.0000
 2071,'1 ',   112.500,    -0.815,    31.950,   -21.600,1.00000,    0,   180.000,   0.00000,   1.00000,   0.00000,   0.00000,1.00000,1,  100.0,   150.000,    45.000,   1,1.0000,   0,1.0000,   0,1.0000,   0,1.0000,1, 1.0000
 2076,'1 ',    22.500,     6.390,     6.390,    -4.320,1.04000,    0,    36.000,   0.00000,   1.00000,   0.00000,   0.00000,1.00000,1,  100.0,    30.000,     9.000,   1,1.0000,   0,1.0000,   0,1.0000,   0,1.0000,1, 1.0000
 2078,'1 ',    84.380,     3.086,    23.960,   -16.200,1.02000,    0,   135.000,   0.00000,   1.00000,   0.00000,   0.00000,1.00000,1,  100.0,   112.500,    33.750,   1,1.0000,   0,1.0000,   0,1.0000,   0,1.0000,1, 1.0000
 2083,'1 ',    19.944,    10.180,    10.180,    -2.220,1.02000,    0,    24.000,   0.00000,   0.16410,   0.00000,   0.00000,1.00000,1,  100.0,    20.000,     6.000,   1,1.0000,   0,1.0000,   0,1.0000,   0,1.0000,0, 1.0000
 2084,'1 ',     0.000,     0.000,    10.180,    -2.220,1.02000,    0,    24.000,   0.00000,   0.23120,   0.00000,   0.00000,1.00000,0,  100.0,    20.000,     6.000,   1,1.0000,   0,1.0000,   0,1.0000,   0,1.0000,0, 1.0000
 2085,'1 ',     0.000,     0.000,    20.360,    -4.440,1.02000,    0,    48.000,   0.00000,   0.22690,   0.00000,   0.00000,1.00000,0,  100.0,    40.000,    12.000,   1,1.0000,   0,1.0000,   0,1.0000,   0,1.0000,0, 1.0000
 2089,'1 ',    50.700,     0.478,    14.400,    -9.730,1.00000,    0,    81.120,   0.00000,   1.00000,   0.00000,   0.00000,1.00000,1,  100.0,    67.600,    20.280,   1,1.0000,   0,1.0000,   0,1.0000,   0,1.0000,1, 1.0000
 2094,'1 ',     0.000,     0.000,     2.130,    -1.440,1.00000,    0,    12.000,   0.00000,   1.00000,   0.00000,   0.00000,1.00000,0,  100.0,    10.000,     3.000,   1,1.0000,   0,1.0000,   0,1.0000,   0,1.0000,1, 1.0000
 2095,'1 ',     0.000,     0.000,    16.930,   -11.450,1.00000,    0,    95.400,   0.00000,   1.00000,   0.00000,   0.00000,1.00000,0,  100.0,    79.500,    23.850,   1,1.0000,   0,1.0000,   0,1.0000,   0,1.0000,1, 1.0000
 2099,'1 ',     7.500,    -0.055,     2.130,    -1.440,1.02000,    0,    12.000,   0.00000,   1.00000,   0.00000,   0.00000,1.00000,1,  100.0,    10.000,     3.000,   1,1.0000,   0,1.0000,   0,1.0000,   0,1.0000,1, 1.0000
 2100,'1 ',   112.500,     0.585,    31.950,   -21.600,1.02000,    0,   180.000,   0.00000,   1.00000,   0.00000,   0.00000,1.00000,1,  100.0,   150.000,    45.000,   1,1.0000,   0,1.0000,   0,1.0000,   0,1.0000,1, 1.0000
 2103,'1 ',     0.000,     0.000,   136.280,   -29.720,1.00000,    0,   321.280,   0.00000,   0.33430,   0.00000,   0.00000,1.00000,0,  100.0,   267.730,    80.320,   1,1.0000,   0,1.0000,   0,1.0000,   0,1.0000,0, 1.0000
 2104,'1 ',     0.000,     0.000,   136.280,   -29.720,1.00000,    0,   321.280,   0.00000,   0.31470,   0.00000,   0.00000,1.00000,0,  100.0,   267.730,    80.320,   1,1.0000,   0,1.0000,   0,1.0000,   0,1.0000,0, 1.0000
 2105,'1 ',     0.000,     0.000,   136.280,   -29.720,1.00000,    0,   321.280,   0.00000,   0.14160,   0.00000,   0.00000,1.00000,0,  100.0,   267.730,    80.320,   1,1.0000,   0,1.0000,   0,1.0000,   0,1.0000,0, 1.0000
 2115,'1 ',   184.204,   -20.500,    94.020,   -20.500,1.00000,    0,   221.660,   0.00000,   0.14250,   0.00000,   0.00000,1.00000,1,  100.0,   184.720,    55.410,   1,1.0000,   0,1.0000,   0,1.0000,   0,1.0000,0, 1.0000
 2116,'1 ',   184.204,   -20.500,    94.020,   -20.500,1.00000,    0,   221.660,   0.00000,   0.18690,   0.00000,   0.00000,1.00000,1,  100.0,   184.720,    55.410,   1,1.0000,   0,1.0000,   0,1.0000,   0,1.0000,0, 1.0000
 2117,'1 ',   184.204,   -20.500,    94.020,   -20.500,1.00000,    0,   221.660,   0.00000,   0.32540,   0.00000,   0.00000,1.00000,1,  100.0,   184.720,    55.410,   1,1.0000,   0,1.0000,   0,1.0000,   0,1.0000,0, 1.0000
 2118,'1 ',   184.204,   -20.500,    94.020,   -20.500,1.00000,    0,   221.660,   0.00000,   0.10610,   0.00000,   0.00000,1.00000,1,  100.0,   184.720,    55.410,   1,1.0000,   0,1.0000,   0,1.0000,   0,1.0000,0, 1.0000
 2119,'1 ',   184.204,   -20.500,    94.020,   -20.500,1.00000,    0,   221.660,   0.00000,   0.13600,   0.00000,   0.00000,1.00000,1,  100.0,   184.720,    55.410,   1,1.0000,   0,1.0000,   0,1.0000,   0,1.0000,0, 1.0000
 2120,'1 ',   184.204,    -2.916,    94.020,   -20.500,1.01000,    0,   221.660,   0.00000,   0.20680,   0.00000,   0.00000,1.00000,1,  100.0,   184.720,    55.410,   1,1.0000,   0,1.0000,   0,1.0000,   0,1.0000,0, 1.0000
 2123,'1 ',   136.280,   -26.160,    38.700,   -26.160,1.00000,    0,   218.040,   0.00000,   1.00000,   0.00000,   0.00000,1.00000,1,  100.0,   181.700,    54.510,   1,1.0000,   0,1.0000,   0,1.0000,   0,1.0000,1, 1.0000
 2127,'1 ',   216.450,    -0.025,    61.470,   -41.560,1.04000,    0,   346.320,   0.00000,   1.00000,   0.00000,   0.00000,1.00000,1,  100.0,   288.600,    86.580,   1,1.0000,   0,1.0000,   0,1.0000,   0,1.0000,1, 1.0000
 3004,'1 ',    28.130,    -5.400,     7.990,    -5.400,1.00000,    0,    45.000,   0.00000,   1.00000,   0.00000,   0.00000,1.00000,1,  100.0,    37.500,    11.250,   1,1.0000,   0,1.0000,   0,1.0000,   0,1.0000,1, 1.0000
 3017,'1 ',   127.130,     3.678,    36.100,   -24.410,1.01000,    0,   203.400,   0.00000,   1.00000,   0.00000,   0.00000,1.00000,1,  100.0,   169.500,    50.850,   1,1.0000,   0,1.0000,   0,1.0000,   0,1.0000,1, 1.0000
 3020,'1 ',   112.500,    12.585,    31.950,   -21.600,1.03000,    0,   180.000,   0.00000,   1.00000,   0.00000,   0.00000,1.00000,1,  100.0,   150.000,    45.000,   1,1.0000,   0,1.0000,   0,1.0000,   0,1.0000,1, 1.0000
 3028,'1 ',   150.000,    42.600,    42.600,   -28.800,1.04000,    0,   240.000,   0.00000,   1.00000,   0.00000,   0.00000,1.00000,1,  100.0,   200.000,    60.000,   1,1.0000,   0,1.0000,   0,1.0000,   0,1.0000,1, 1.0000
 3034,'1 ',    97.870,    18.153,    27.800,   -18.790,1.03000,    0,   156.600,   0.00000,   1.00000,   0.00000,   0.00000,1.00000,1,  100.0,   130.500,    39.150,   1,1.0000,   0,1.0000,   0,1.0000,   0,1.0000,1, 1.0000
 3039,'1 ',   156.750,    44.520,    44.520,   -30.100,1.04000,    0,   250.800,   0.00000,   1.00000,   0.00000,   0.00000,1.00000,1,  100.0,   209.000,    62.700,   1,1.0000,   0,1.0000,   0,1.0000,   0,1.0000,1, 1.0000
 3043,'1 ',     0.000,     0.000,     0.660,    -0.140,1.04000,    0,     1.560,   0.00000,   0.27280,   0.00000,   0.00000,1.00000,0,  100.0,     1.300,     0.390,   1,1.0000,   0,1.0000,   0,1.0000,   0,1.0000,0, 1.0000
 3044,'1 ',     0.000,     0.000,    45.500,    -9.920,1.04000,    0,   107.280,   0.00000,   0.17000,   0.00000,   0.00000,1.00000,0,  100.0,    89.400,    26.820,   1,1.0000,   0,1.0000,   0,1.0000,   0,1.0000,0, 1.0000
...